*Heading
** Job name: B737 Model name: Model-1
** Generated by: Abaqus/CAE 2017
*Preprint, echo=NO, model=NO, history=NO, contact=NO
**
** PARTS
**
*Part, name=B737
*Node
      1,        2661.,           0.,        102.5
      2,        2591.,           0.,        102.5
      3,        2591.,       -102.5,           0.
      4,        2661.,       -102.5,           0.
      5,        1386.,           0.,        102.5
      6,        1386.,       -102.5,           0.
      7,        1211.,           0.,        102.5
      8,        1211.,       -102.5,           0.
      9,        1036.,           0.,        102.5
     10,        1036.,       -102.5,           0.
     11,           0.,           0.,        102.5
     12,         172.,           0.,        102.5
     13,         172.,        102.5,           0.
     14,           0.,        102.5,           0.
     15,         172.,       -102.5,           0.
     16,        2591.,           0.,       -502.5
     17,        2591.,   92.5559692,       -48.75
     18,        2661.,   92.5559692,       -48.75
     19,        2661.,           0.,       -502.5
     20,        2591.,  -92.5559692,       -48.75
** ... 6568 like lines cut
*Element, type=S4R
 1,    1,   43, 1034,   56
 2,   43,   44, 1035, 1034
 3,   44,    2,   45, 1035
 4,   56, 1034, 1036,   55
 5, 1034, 1035, 1037, 1036
 6, 1035,   45,   46, 1037
 7,   55, 1036, 1038,   54
 8, 1036, 1037, 1039, 1038
 9, 1037,   46,   47, 1039
10,   54, 1038, 1040,   53
11, 1038, 1039, 1041, 1040
12, 1039,   47,   48, 1041
13,   53, 1040, 1042,   52
14, 1040, 1041, 1043, 1042
15, 1041,   48,   49, 1043
16,   52, 1042,   51,    4
17, 1042, 1043,   50,   51
18, 1043,   49,    3,   50
 19,    2,   57, 1044,   45
 20,   57,   58, 1045, 1044
** ... 6614 like lines cut
*Nset, nset=Skin
    1,    2,    3,    4,    5,    6,    7,    8,    9,   10,   11,   12,   13,   14,   15,   16
   17,   18,   19,   20,   21,   22,   23,   24,   25,   26,   27,   28,   29,   30,   31,   32
   33,   34,   35,   36,   37,   38,   39,   40,   41,   42,   43,   44,   45,   46,   47,   48
   49,   50,   51,   52,   53,   54,   55,   56,   57,   58,   59,   60,   61,   62,   63,   64
   65,   66,   67,   68,   69,   70,   71,   72,   73,   74,   75,   76,   77,   78,   79,   80
   81,   82,   83,   84,   85,   86,   87,   88,   89,   90,   91,   92,   93,   94,   95,   96
   97,   98,   99,  100,  101,  102,  103,  104,  105,  106,  107,  108,  109,  110,  111,  112
  113,  114,  115,  116,  117,  118,  119,  120,  121,  122,  123,  124,  125,  126,  127,  128
  129,  130,  131,  132,  133,  134,  135,  136,  137,  138,  139,  140,  141,  142,  143,  144
  145,  146,  147,  148,  149,  150,  151,  152,  153,  154,  155,  156,  157,  158,  159,  160
  161,  162,  163,  164,  165,  166,  167,  168,  169,  170,  171,  172,  173,  174,  175,  176
  177,  178,  179,  180,  181,  182,  183,  184,  185,  186,  187,  188,  189,  190,  191,  192
  193,  194,  195,  196,  197,  198,  199,  200,  201,  202,  203,  204,  205,  206,  207,  208
  209,  210,  211,  212,  213,  214,  215,  216,  217,  218,  219,  220,  221,  222,  223,  224
  225,  226,  227,  228,  229,  230,  231,  232,  233,  234,  235,  236,  237,  238,  239,  240
  241,  242,  243,  244,  245,  246,  247,  248,  249,  250,  251,  252,  253,  254,  255,  256
  257,  258,  259,  260,  261,  262,  263,  264,  265,  266,  267,  268,  269,  270,  271,  272
  273,  274,  275,  276,  277,  278,  279,  280,  281,  282,  283,  284,  285,  286,  287,  288
  289,  290,  291,  292,  293,  294,  295,  296,  297,  298,  299,  300,  301,  302,  303,  304
  305,  306,  307,  308,  309,  310,  311,  312,  313,  314,  315,  316,  317,  318,  319,  320
** ... 345 like lines cut
*Elset, elset=Skin
    1,    2,    3,    4,    5,    6,    7,    8,    9,   10,   11,   12,   13,   14,   15,   16
   17,   18,   19,   20,   21,   22,   23,   24,   25,   26,   27,   28,   29,   30,   31,   32
   33,   34,   35,   36,   37,   38,   39,   40,   41,   42,   43,   44,   45,   46,   47,   48
   49,   50,   51,   52,   53,   54,   55,   56,   57,   58,   59,   60,   61,   62,   63,   64
   65,   66,   67,   68,   69,   70,   71,   72,   73,   74,   75,   76,   77,   78,   79,   80
   81,   82,   83,   84,   85,   86,   87,   88,   89,   90,   91,   92,   93,   94,   95,   96
   97,   98,   99,  100,  101,  102,  103,  104,  105,  106,  107,  108,  109,  110,  111,  112
  113,  114,  115,  116,  117,  118,  119,  120,  121,  122,  123,  124,  125,  126,  127,  128
  129,  130,  131,  132,  133,  134,  135,  136,  137,  138,  139,  140,  141,  142,  143,  144
  145,  146,  147,  148,  149,  150,  151,  152,  153,  154,  155,  156,  157,  158,  159,  160
  161,  162,  163,  164,  165,  166,  167,  168,  169,  170,  171,  172,  173,  174,  175,  176
  177,  178,  179,  180,  181,  182,  183,  184,  185,  186,  187,  188,  189,  190,  191,  192
  193,  194,  195,  196,  197,  198,  199,  200,  201,  202,  203,  204,  205,  206,  207,  208
  209,  210,  211,  212,  213,  214,  215,  216,  217,  218,  219,  220,  221,  222,  223,  224
  225,  226,  227,  228,  229,  230,  231,  232,  233,  234,  235,  236,  237,  238,  239,  240
  241,  242,  243,  244,  245,  246,  247,  248,  249,  250,  251,  252,  253,  254,  255,  256
  257,  258,  259,  260,  261,  262,  263,  264,  265,  266,  267,  268,  269,  270,  271,  272
  273,  274,  275,  276,  277,  278,  279,  280,  281,  282,  283,  284,  285,  286,  287,  288
  289,  290,  291,  292,  293,  294,  295,  296,  297,  298,  299,  300,  301,  302,  303,  304
  305,  306,  307,  308,  309,  310,  311,  312,  313,  314,  315,  316,  317,  318,  319,  320
** ... 342 like lines cut
*Nset, nset=Spar
    3,    4,    6,    8,   10,   13,   14,   15,   23,   24,   25,   27,   34,   41,   50,   51
  109,  110,  111,  112,  113,  114,  115,  116,  117,  118,  119,  120,  121,  122,  123,  124
  125,  126,  127,  128,  129,  130,  131,  132,  133,  134,  135,  136,  137,  138,  139,  140
  141,  142,  143,  144,  145,  146,  147,  148,  149,  150,  151,  152,  153,  154,  155,  167
  168,  169,  170,  171,  172,  184,  185,  186,  187,  188,  189,  201,  202,  203,  204,  205
  206,  251,  252,  253,  254,  255,  256,  257,  258,  259,  260,  261,  262,  263,  264,  265
  266,  267,  268,  269,  270,  271,  272,  273,  274,  275,  276,  277,  278,  279,  280,  281
  282,  283,  284,  456,  457,  471,  472,  473,  474,  475,  476,  477,  478,  479,  480,  481
  482,  483,  484,  485,  486,  487,  488,  489,  490,  491,  492,  493,  494,  495,  496,  497
  498,  499,  500,  501,  502,  503,  504,  505,  506,  507,  508,  509,  510,  511,  512,  513
  514,  515,  516,  517,  518,  519,  520,  521,  522,  523,  524,  525,  526,  527,  528,  529
  530,  531,  532,  533,  534,  535,  536,  537,  538,  547,  548,  549,  550,  551,  552,  723
  724,  725,  726,  727,  728,  729,  730,  731,  732,  733,  734,  735,  736,  737,  738,  739
  740,  741,  742,  754,  755,  756,  757,  758,  759,  760,  761,  762,  763,  764,  765,  766
  767,  768,  769,  770,  771,  772,  773,  774,  775,  776,  777,  778,  779,  780,  781,  782
  783,  784,  785,  786,  787,  949,  950,  951,  952,  953,  954,  956,  957,  958,  959,  960
  961,  962,  963,  964,  965,  966,  967,  968,  969, 2480, 2481, 2482, 2483, 2484, 2485, 2486
 2487, 2488, 2489, 2490, 2491, 2492, 2493, 2494, 2495, 2496, 2497, 2498, 2499, 2500, 2501, 2502
 2503, 2504, 2505, 2506, 2507, 2508, 2509, 2510, 2511, 2512, 2513, 2514, 2515, 2516, 2517, 2518
 2519, 2520, 2521, 2522, 2523, 2524, 2525, 2526, 2527, 2528, 2529, 2530, 2531, 2532, 2533, 2534
** ... 41 like lines cut
*Elset, elset=Spar
 1732, 1733, 1734, 1735, 1736, 1737, 1738, 1739, 1740, 1741, 1742, 1743, 1744, 1745, 1746, 1747
 1748, 1749, 1750, 1751, 1752, 1753, 1754, 1755, 1756, 1757, 1758, 1759, 1760, 1761, 1762, 1763
 1764, 1765, 1766, 1767, 1768, 1769, 1770, 1771, 1772, 1773, 1774, 1775, 1776, 1777, 1778, 1779
 1780, 1781, 1782, 1783, 1784, 1785, 1786, 1787, 1788, 1789, 1790, 1791, 1792, 1793, 1794, 1795
 1796, 1797, 1798, 1799, 1800, 1801, 1802, 1803, 1804, 1805, 1806, 1807, 1808, 1809, 1810, 1811
 1812, 1813, 1814, 1815, 1816, 1817, 1818, 1819, 1820, 1821, 1822, 1823, 1824, 1825, 1826, 1827
 1828, 1829, 1830, 1831, 1832, 1833, 1834, 1835, 1836, 1837, 1838, 1839, 1840, 1841, 1842, 1843
 1844, 1845, 1846, 1847, 1848, 1849, 1850, 1851, 1852, 1853, 1854, 1855, 1856, 1857, 1858, 1859
 1860, 1861, 1862, 1863, 1864, 1865, 1866, 1867, 1868, 1869, 1870, 1871, 1872, 1873, 1874, 1875
 1876, 1877, 1878, 1879, 1880, 1881, 1882, 1883, 1884, 1885, 1886, 1887, 1888, 1889, 1890, 1891
 1892, 1893, 1894, 1895, 1896, 1897, 1898, 1899, 1900, 1901, 1902, 1903, 1904, 1905, 1906, 1907
 1908, 1909, 1910, 1911, 1912, 1913, 1914, 1915, 1916, 1917, 1918, 1919, 1920, 1921, 1922, 1923
 1924, 1925, 1926, 1927, 1928, 1929, 1930, 1931, 1932, 1933, 1934, 1935, 1936, 1937, 1938, 1939
 1940, 1941, 1942, 1943, 1944, 1945, 1946, 1947, 1948, 1949, 1950, 1951, 1952, 1953, 1954, 1955
 1956, 1957, 1958, 1959, 1960, 1961, 1962, 1963, 1964, 1965, 1966, 1967, 1968, 1969, 1970, 1971
 1972, 1973, 1974, 1975, 1976, 1977, 1978, 1979, 1980, 1981, 1982, 1983, 1984, 1985, 1986, 1987
 1988, 1989, 1990, 1991, 1992, 1993, 1994, 1995, 1996, 1997, 1998, 1999, 2000, 2001, 2002, 2003
 2004, 2005, 2006, 2007, 2008, 2009, 2010, 2011, 2012, 2013, 2014, 2015, 2016, 2017, 2018, 2019
 2020, 2021, 2022, 2023, 2024, 2025, 2026, 2027, 2028, 2029, 2030, 2031, 2032, 2033, 2034, 2035
 2036, 2037, 2038, 2039, 2040, 2041, 2042, 2043, 2044, 2045, 2046, 2047, 2048, 2049, 2050, 2051
** ... 34 like lines cut
*Nset, nset=Rib_A
  12,  13,  15,  36,  37,  38, 196, 197, 198, 199, 200, 246, 247, 248, 249, 250
 823, 876, 877, 878, 879, 880, 881, 882, 883, 884, 885, 886, 887, 888, 889, 890
 891, 892, 893, 894, 895, 896, 897, 898, 899, 900, 901, 902, 903, 904, 905, 906
 907, 908, 909, 910, 911, 948, 956, 957, 958, 959, 960, 961, 962
*Nset, nset=Rib_B
   9,  10,  32,  33,  34,  35, 179, 180, 181, 182, 183, 697, 698, 699, 700, 701
 702, 703, 704, 705, 706, 707, 708, 709, 710, 711, 712, 713, 714, 722, 730, 731
 732, 733, 734, 735, 736, 749, 750, 751, 752, 753, 788, 824, 825, 826, 827, 828
 829, 830, 831, 832, 833, 834, 835, 836, 837, 838, 839, 840, 841
*Nset, nset=Rib_C
   5,   6,  21,  22,  25,  28, 104, 105, 106, 107, 108, 390, 391, 392, 393, 394
 395, 396, 397, 398, 399, 400, 401, 402, 403, 404, 405, 406, 407, 460, 478, 479
 480, 481, 482, 483, 484, 542, 543, 544, 545, 546, 558, 584, 585, 586, 587, 588
 589, 590, 591, 592, 593, 594, 595, 596, 597, 598, 599, 600, 601
*Nset, nset=Rib_D
   2,   3,  16,  17,  20,  23,  45,  46,  47,  48,  49, 285, 286, 287, 288, 289
 290, 291, 292, 293, 294, 295, 296, 297, 298, 299, 300, 301, 302, 325, 326, 327
 328, 329, 330, 331, 332, 333, 334, 335, 336, 337, 338, 339, 340, 341, 342, 455
 459, 466, 467, 468, 469, 470, 471, 472, 473, 474, 475, 476, 477
*Nset, nset=Point_5
   11,   14,   39,   40,   41,   42,  207,  208,  209,  210,  211,  918,  919,  920,  921,  922
  923,  924,  925,  926,  927,  928,  929,  930,  931,  932,  933,  934,  935,  955,  963,  964
  965,  966,  967,  968,  969,  970,  971,  972,  973,  974,  975,  976,  977,  978,  979,  980
  981,  982,  983,  984,  985,  986,  987, 1028, 1029, 1030, 1031, 1032, 1033
*Nset, nset=Point_15
   1,   4,  18,  19,  24,  26,  52,  53,  54,  55,  56, 305, 306, 307, 308, 309
 310, 311, 312, 313, 314, 315, 316, 317, 318, 319, 320, 321, 322, 458, 461, 462
 463, 464, 465, 532, 533, 534, 535, 536, 537, 538, 541, 566, 567, 568, 569, 570
 571, 572, 573, 574, 575, 576, 577, 578, 579, 580, 581, 582, 583
*Nset, nset=Point_10
   7,   8,  27,  29,  30,  31, 162, 163, 164, 165, 166, 553, 554, 555, 556, 557
 565, 608, 609, 610, 611, 612, 613, 614, 615, 616, 617, 618, 619, 620, 621, 622
 623, 624, 625, 673, 674, 675, 676, 677, 678, 679, 680, 681, 682, 683, 684, 685
 686, 687, 688, 689, 690, 721, 723, 724, 725, 726, 727, 728, 729
*Nset, nset=LE
   1,   2,   5,   7,   9,  11,  12,  43,  44,  57,  58,  59,  60,  61,  62,  63
  64,  65,  66,  67,  68,  69,  70,  71,  72,  73,  74,  75,  76,  77,  78,  79
  80,  81,  82,  83,  84,  85,  86,  87,  88,  89,  90,  91,  92,  93,  94,  95
  96,  97,  98,  99, 100, 101, 102, 103, 156, 157, 158, 159, 160, 161, 173, 174
 175, 176, 177, 178, 190, 191, 192, 193, 194, 195, 212, 213, 214, 215, 216, 217
 218, 219, 220, 221, 222, 223, 224, 225, 226, 227, 228, 229, 230, 231, 232, 233
 234, 235, 236, 237, 238, 239, 240, 241, 242, 243, 244, 245
*Nset, nset=TE
  16,  19,  22,  30,  33,  37,  40, 323, 324, 408, 409, 410, 411, 412, 413, 414
 415, 416, 417, 418, 419, 420, 421, 422, 423, 424, 425, 426, 427, 428, 429, 430
 431, 432, 433, 434, 435, 436, 437, 438, 439, 440, 441, 442, 443, 444, 445, 446
 447, 448, 449, 450, 451, 452, 453, 454, 602, 603, 604, 605, 606, 607, 715, 716
 717, 718, 719, 720, 842, 843, 844, 845, 846, 847, 848, 849, 850, 851, 852, 853
 854, 855, 856, 857, 858, 859, 860, 861, 862, 863, 864, 865, 866, 867, 868, 869
 870, 871, 872, 873, 874, 875, 936, 937, 938, 939, 940, 941
** Section: Skin
*Shell Section, elset=Skin, material=Aluminium
1.55, 5
** Section: Spar
*Shell Section, elset=Spar, material=Aluminium
2.8, 5
*End Part
**  
**
** ASSEMBLY
**
*Assembly, name=Assembly
**  
*Instance, name=B737-1, part=B737
*End Instance
**  
*Node
      1,         172.,           0.,           0.
*Node
      2,        1036.,        102.5,        102.5
*Node
      3,        2591.,           0.,           0.
*Node
      4,        1386.,        102.5,        102.5
*Node
      5,           0.,           0.,       -48.75
*Node
      6,   266.100006,           0.,       -48.75
*Node
      7,   532.200012,           0.,       -48.75
*Node
      8,   798.299988,           0.,       -48.75
*Node
      9,   1064.40002,           0.,       -48.75
*Node
     10,       1330.5,           0.,       -48.75
*Node
     11,   1596.59998,           0.,       -48.75
*Node
     12,   1862.69995,           0.,       -48.75
*Node
     13,   2128.80005,           0.,       -48.75
*Node
     14,    2394.8999,           0.,       -48.75
*Node
     15,        2661.,           0.,       -48.75
*Node
     16,        1211.,           0.,           0.
*Nset, nset=Hinge_2, instance=B737-1
   7,   8,  27,  29,  30,  31, 162, 163, 164, 165, 166, 553, 554, 555, 556, 557
 565, 608, 609, 610, 611, 612, 613, 614, 615, 616, 617, 618, 619, 620, 621, 622
 623, 624, 625, 673, 674, 675, 676, 677, 678, 679, 680, 681, 682, 683, 684, 685
 686, 687, 688, 689, 690, 721, 723, 724, 725, 726, 727, 728, 729
*Nset, nset=Point_6, instance=B737-1
  242,  254,  784,  819,  872, 1024, 1399, 1433, 1467, 1501, 1535, 4340, 4374, 4408, 4442, 4476
 4537, 5189, 5190, 5191, 5192, 5193, 5194, 5195, 5196, 5197, 5198, 5199, 5200, 5201, 5202, 5203
 5204, 5205, 5206, 6209, 6210, 6211, 6212, 6213, 6214, 6215, 6216, 6217, 6218, 6219, 6220, 6221
 6222, 6223, 6224, 6225, 6226, 6491, 6492, 6493, 6494, 6495, 6496, 6497, 6555
*Nset, nset=Point_7, instance=B737-1
  231,  265,  773,  808,  861, 1013, 1388, 1422, 1456, 1490, 1524, 4351, 4385, 4419, 4453, 4487
 4526, 4991, 4992, 4993, 4994, 4995, 4996, 4997, 4998, 4999, 5000, 5001, 5002, 5003, 5004, 5005
 5006, 5007, 5008, 6011, 6012, 6013, 6014, 6015, 6016, 6017, 6018, 6019, 6020, 6021, 6022, 6023
 6024, 6025, 6026, 6027, 6028, 6414, 6415, 6416, 6417, 6418, 6419, 6420, 6544
*Nset, nset=Point_8, instance=B737-1
  221,  275,  763,  798,  851, 1003, 1378, 1412, 1446, 1480, 1514, 4361, 4395, 4429, 4463, 4497
 4516, 4811, 4812, 4813, 4814, 4815, 4816, 4817, 4818, 4819, 4820, 4821, 4822, 4823, 4824, 4825
 4826, 4827, 4828, 5831, 5832, 5833, 5834, 5835, 5836, 5837, 5838, 5839, 5840, 5841, 5842, 5843
 5844, 5845, 5846, 5847, 5848, 6344, 6345, 6346, 6347, 6348, 6349, 6350, 6534
*Nset, nset=Point_9, instance=B737-1
  178,  184,  696,  715,  737,  942, 1314, 1320, 1326, 1332, 1338, 3941, 3942, 3943, 3944, 3945
 3946, 3947, 3948, 3949, 3950, 3951, 3952, 3953, 3954, 3955, 3956, 3957, 3958, 4011, 4282, 4283
 4284, 4285, 4286, 4287, 4288, 5459, 5460, 5461, 5462, 5463, 5464, 5465, 5466, 5467, 5468, 5469
 5470, 5471, 5472, 5473, 5474, 5475, 5476, 5482, 5489, 5495, 5501, 5507, 5513
*Nset, nset=Point_10, instance=B737-1
  157,  171,  548,  560,  603,  747, 1280, 1286, 1292, 1298, 1304, 2829, 2835, 2841, 2847, 2853
 2856, 2915, 2916, 2917, 2918, 2919, 2920, 2921, 2922, 2923, 2924, 2925, 2926, 2927, 2928, 2929
 2930, 2931, 2932, 4296, 4297, 4298, 4299, 4300, 4301, 4302, 4332, 4559, 4560, 4561, 4562, 4563
 4564, 4565, 4566, 4567, 4568, 4569, 4570, 4571, 4572, 4573, 4574, 4575, 4576
*Nset, nset=Point_11, instance=B737-1
   96,  116,  382,  415,  492,  633, 1083, 1130, 1177, 1224, 1271, 2277, 2278, 2279, 2280, 2281
 2282, 2283, 2284, 2285, 2286, 2287, 2288, 2289, 2290, 2291, 2292, 2293, 2294, 2462, 2753, 2754
 2755, 2756, 2757, 2758, 2759, 3707, 3708, 3709, 3710, 3711, 3712, 3713, 3714, 3715, 3716, 3717
 3718, 3719, 3720, 3721, 3722, 3723, 3724, 3998, 4019, 4066, 4113, 4160, 4207
*Nset, nset=Point_12, instance=B737-1
   85,  127,  371,  426,  503,  644, 1072, 1119, 1166, 1213, 1260, 2079, 2080, 2081, 2082, 2083
 2084, 2085, 2086, 2087, 2088, 2089, 2090, 2091, 2092, 2093, 2094, 2095, 2096, 2451, 2676, 2677
 2678, 2679, 2680, 2681, 2682, 3509, 3510, 3511, 3512, 3513, 3514, 3515, 3516, 3517, 3518, 3519
 3520, 3521, 3522, 3523, 3524, 3525, 3526, 3987, 4030, 4077, 4124, 4171, 4218
*Nset, nset=Point_13, instance=B737-1
   74,  138,  360,  437,  514,  655, 1061, 1108, 1155, 1202, 1249, 1881, 1882, 1883, 1884, 1885
 1886, 1887, 1888, 1889, 1890, 1891, 1892, 1893, 1894, 1895, 1896, 1897, 1898, 2440, 2599, 2600
 2601, 2602, 2603, 2604, 2605, 3311, 3312, 3313, 3314, 3315, 3316, 3317, 3318, 3319, 3320, 3321
 3322, 3323, 3324, 3325, 3326, 3327, 3328, 3976, 4041, 4088, 4135, 4182, 4229
*Nset, nset=Point_14, instance=B737-1
   64,  148,  350,  447,  524,  665, 1051, 1098, 1145, 1192, 1239, 1701, 1702, 1703, 1704, 1705
 1706, 1707, 1708, 1709, 1710, 1711, 1712, 1713, 1714, 1715, 1716, 1717, 1718, 2430, 2529, 2530
 2531, 2532, 2533, 2534, 2535, 3131, 3132, 3133, 3134, 3135, 3136, 3137, 3138, 3139, 3140, 3141
 3142, 3143, 3144, 3145, 3146, 3147, 3148, 3966, 4051, 4098, 4145, 4192, 4239
*Nset, nset=Point_15, instance=B737-1
   1,   4,  18,  19,  24,  26,  52,  53,  54,  55,  56, 305, 306, 307, 308, 309
 310, 311, 312, 313, 314, 315, 316, 317, 318, 319, 320, 321, 322, 458, 461, 462
 463, 464, 465, 532, 533, 534, 535, 536, 537, 538, 541, 566, 567, 568, 569, 570
 571, 572, 573, 574, 575, 576, 577, 578, 579, 580, 581, 582, 583
*Nset, nset=Set-26
 1,
*Nset, nset=Set-27
 2,
*Nset, nset=Set-28
 3,
*Nset, nset=Set-60
 2,
*Nset, nset=Set-61
 4,
*Nset, nset=Set-62
 4,
*Nset, nset=Set-64
 4,
*Nset, nset=Set-65
 5,
*Nset, nset=Set-66
 6,
*Nset, nset=Set-67
 2,
*Nset, nset=Set-68
 7,
*Nset, nset=Set-69
 8,
*Nset, nset=Set-70
 9,
*Nset, nset=Set-71
 10,
*Nset, nset=Set-72
 11,
*Nset, nset=Set-73
 12,
*Nset, nset=Set-74
 13,
*Nset, nset=Set-75
 14,
*Nset, nset=Set-76
 15,
*Nset, nset=Set-77
** ... 39 like lines cut
*Nset, nset=m_Set-20
 1,
*Nset, nset=m_Set-23
 3,
*Nset, nset=m_Set-24
 2,
*Nset, nset=m_Set-44
 1,
*Nset, nset=m_Set-45
 1,
*Nset, nset=m_Set-46
 2,
*Nset, nset=m_Set-47
 4,
*Nset, nset=m_Set-48
 3,
*Nset, nset=m_Set-49
 5,
*Nset, nset=m_Set-50
 6,
*Nset, nset=m_Set-51
 7,
*Nset, nset=m_Set-52
 8,
*Nset, nset=m_Set-53
 9,
*Nset, nset=m_Set-54
 10,
*Nset, nset=m_Set-55
 11,
*Nset, nset=m_Set-56
 12,
*Nset, nset=m_Set-57
 13,
*Nset, nset=m_Set-58
 14,
*Nset, nset=m_Set-59
 15,
*Nset, nset=m_Set-63
 5,
*Nset, nset=m_Set-77
 16,
*Surface, type=NODE, name=B737-1_Rib_A_CNS_, internal
B737-1.Rib_A, 1.
*Surface, type=NODE, name=B737-1_Rib_B_CNS_, internal
B737-1.Rib_B, 1.
*Surface, type=NODE, name=B737-1_Rib_C_CNS_, internal
B737-1.Rib_C, 1.
*Surface, type=NODE, name=B737-1_Rib_D_CNS_, internal
B737-1.Rib_D, 1.
*Surface, type=NODE, name=B737-1_Point_5_CNS_, internal
B737-1.Point_5, 1.
*Surface, type=NODE, name=Point_6_CNS_, internal
Point_6, 1.
*Surface, type=NODE, name=Point_7_CNS_, internal
Point_7, 1.
*Surface, type=NODE, name=Point_8_CNS_, internal
Point_8, 1.
*Surface, type=NODE, name=Point_9_CNS_, internal
Point_9, 1.
*Surface, type=NODE, name=Point_10_CNS_, internal
Point_10, 1.
*Surface, type=NODE, name=Point_11_CNS_, internal
Point_11, 1.
*Surface, type=NODE, name=Point_12_CNS_, internal
Point_12, 1.
*Surface, type=NODE, name=Point_13_CNS_, internal
Point_13, 1.
*Surface, type=NODE, name=Point_14_CNS_, internal
Point_14, 1.
*Surface, type=NODE, name=Point_15_CNS_, internal
Point_15, 1.
*Surface, type=NODE, name=Hinge_2_CNS_, internal
Hinge_2, 1.
*Nset, nset=_T-B737-1-Rotated, internal
Set-84, 
Set-26, 
Set-78, 
Set-28, 
Set-85, 
B737-1.Rib_A, 
m_Set-45, 
B737-1.Rib_B, 
m_Set-46, 
B737-1.Rib_C, 
m_Set-47, 
B737-1.Rib_D, 
m_Set-48, 
Hinge_2, 
m_Set-77, 
*Transform, nset=_T-B737-1-Rotated
          1.,           0.,           0.,           0., 0.882925313831627, -0.469513461143899
** Constraint: Constraint-1
*MPC
BEAM, B737-1.Rib_A, m_Set-45
** Constraint: Constraint-2
*MPC
BEAM, B737-1.Rib_B, m_Set-46
** Constraint: Constraint-3
*MPC
BEAM, B737-1.Rib_C, m_Set-47
** Constraint: Constraint-4
*MPC
BEAM, B737-1.Rib_D, m_Set-48
** Constraint: Constraint-5
*MPC
BEAM, B737-1.Point_5, m_Set-63
** Constraint: Constraint-6
*MPC
BEAM, Point_6, m_Set-50
** Constraint: Constraint-7
*MPC
BEAM, Point_7, m_Set-51
** Constraint: Constraint-8
*MPC
BEAM, Point_8, m_Set-52
** Constraint: Constraint-9
*MPC
BEAM, Point_9, m_Set-53
** Constraint: Constraint-10
*MPC
BEAM, Point_10, m_Set-54
** Constraint: Constraint-11
*MPC
BEAM, Point_11, m_Set-55
** Constraint: Constraint-12
*MPC
BEAM, Point_12, m_Set-56
** Constraint: Constraint-13
*MPC
BEAM, Point_13, m_Set-57
** Constraint: Constraint-14
*MPC
BEAM, Point_14, m_Set-58
** Constraint: Constraint-15
*MPC
BEAM, Point_15, m_Set-59
** Constraint: Constraint-16
*MPC
BEAM, Hinge_2, m_Set-77
*End Assembly
** 
** MATERIALS
** 
*Material, name=Aluminium
*Elastic
 73.1, 0.33
** 
** BOUNDARY CONDITIONS
** 
** Name: Hinge_1 Type: Displacement/Rotation
*Boundary
Set-26, 2, 2
Set-26, 3, 3
** Name: Hinge_2 Type: Displacement/Rotation
*Boundary
Set-78, 1, 1
Set-78, 2, 2
Set-78, 3, 3
** Name: Hinge_3 Type: Displacement/Rotation
*Boundary
Set-28, 2, 2
Set-28, 3, 3
** ----------------------------------------------------------------
** 
** STEP: Bending
** 
*Step, name=Bending, nlgeom=NO
*Static
1., 1., 1e-05, 1.
** 
** BOUNDARY CONDITIONS
** 
** Name: Actuator_1 Type: Displacement/Rotation
*Boundary
Set-84, 3, 3
** Name: Hinge_1 Type: Displacement/Rotation
*Boundary
Set-26, 2, 2, 11.54
** Name: Hinge_3 Type: Displacement/Rotation
*Boundary
Set-28, 2, 2, 18.4
** 
** OUTPUT REQUESTS
** 
*Restart, write, frequency=0
** 
** FIELD OUTPUT: F-Output-1
** 
*Output, field, variable=PRESELECT
** 
** HISTORY OUTPUT: H-Output-1
** 
*Output, history, variable=PRESELECT
*End Step
** ----------------------------------------------------------------
** 
** STEP: Jam_Bent
** 
*Step, name=Jam_Bent, nlgeom=NO
*Static
1., 1., 1e-05, 1.
** 
** LOADS
** 
** Name: Actuator _2   Type: Concentrated force
*Cload
Set-85, 3, -97.4
** Name: Aero_1   Type: Concentrated force
*Cload
Set-86, 2, -0.737
** Name: Aero_2   Type: Concentrated force
*Cload
Set-87, 2, -1.474
** Name: Aero_3   Type: Concentrated force
*Cload
Set-88, 2, -1.474
** Name: Aero_4   Type: Concentrated force
*Cload
Set-89, 2, -1.474
** Name: Aero_5   Type: Concentrated force
*Cload
Set-90, 2, -1.474
** Name: Aero_6   Type: Concentrated force
*Cload
Set-91, 2, -1.474
** Name: Aero_7   Type: Concentrated force
*Cload
Set-92, 2, -1.474
** Name: Aero_8   Type: Concentrated force
*Cload
Set-93, 2, -1.474
** Name: Aero_9   Type: Concentrated force
*Cload
Set-94, 2, -1.474
** Name: Aero_10   Type: Concentrated force
*Cload
Set-95, 2, -1.474
** Name: Aero_11   Type: Concentrated force
*Cload
Set-96, 2, -0.737
** 
** OUTPUT REQUESTS
** 
*Restart, write, frequency=0
** 
** FIELD OUTPUT: F-Output-1
** 
*Output, field, variable=PRESELECT
** 
** HISTORY OUTPUT: H-Output-1
** 
*Output, history, variable=PRESELECT
*End Step
** ----------------------------------------------------------------
** 
** STEP: Jam_Straight
** 
*Step, name=Jam_Straight, nlgeom=NO
*Static
1., 1., 1e-05, 1.
** 
** BOUNDARY CONDITIONS
** 
** Name: Hinge_1 Type: Displacement/Rotation
*Boundary
Set-26, 2, 2
** Name: Hinge_3 Type: Displacement/Rotation
*Boundary
Set-28, 2, 2
** 
** OUTPUT REQUESTS
** 
*Restart, write, frequency=0
** 
** FIELD OUTPUT: F-Output-1
** 
*Output, field, variable=PRESELECT
** 
** HISTORY OUTPUT: H-Output-1
** 
*Output, history, variable=PRESELECT
*End Step
